I"é/Users/Paul/Documents/Access%20Labs/Module%202/week_2/rails-dynamic-request-readme-dumbo-web-060418/app/assets/javascripts/application.js?type=application/javascript&id=b08d973cc9c4f1d95a7a94f80d6dd104a2246481700efecd0d1a253cdc3e2007:ET