I"÷/Users/Paul/Documents/Access%20Labs/Module%202/week_2/rails-dynamic-request-readme-dumbo-web-060418/app/assets/javascripts/application.js?type=application/javascript&pipeline=self&id=e005bc9516fd89d9f413adef9bd01b9ade9338f27ee26411492ff2dba1ae5214:ET