[o:Set:
@hash}I"environment-version:ETTI"environment-paths;TTI"rails-env;TTI"0processors:type=text/css&file_type=text/css;TTI"˜file-digest:///Users/Paul/Documents/Access%20Labs/Module%202/week_2/rails-dynamic-request-readme-dumbo-web-060418/app/assets/stylesheets/application.css;TTI">processors:type=text/css&file_type=text/css&pipeline=self;TTI"ˆfile-digest:///Users/Paul/Documents/Access%20Labs/Module%202/week_2/rails-dynamic-request-readme-dumbo-web-060418/app/assets/stylesheets;TTF