I"ê/Users/Paul/Documents/Access%20Labs/Module%202/week_2/rails-dynamic-request-readme-dumbo-web-060418/app/assets/stylesheets/application.css?type=text/css&pipeline=self&id=d246a50d5f54bd94c9196e40c0e95308d7eaeec8ddf2424e57e6cb057b8c8331:ET