I"Ü/Users/Paul/Documents/Access%20Labs/Module%202/week_2/rails-dynamic-request-readme-dumbo-web-060418/app/assets/stylesheets/application.css?type=text/css&id=7374109d78ae8643e5729ffa91cfa1f59533eb9aa6b7d6de39c032261605499e:ET